L-glutamic acid
     RDKit          3D

 19 18  0  0  0  0  0  0  0  0999 V2000
   -0.9022   -1.2449    1.1490 N   0  0  0  0  0  0  0  0  0  0  0  0
   -0.7887   -0.0379    0.2991 C   0  0  1  0  0  0  0  0  0  0  0  0
    0.2196   -0.2769   -0.8328 C   0  0  0  0  0  0  0  0  0  0  0  0
    1.6237   -0.6606   -0.3574 C   0  0  0  0  0  0  0  0  0  0  0  0
    2.2863    0.3620    0.5250 C   0  0  0  0  0  0  0  0  0  0  0  0
    3.1015    0.1284    1.4024 O   0  0  0  0  0  0  0  0  0  0  0  0
    1.9784    1.6346    0.2139 O   0  0  0  0  0  0  0  0  0  0  0  0
   -2.1646    0.3197   -0.2796 C   0  0  0  0  0  0  0  0  0  0  0  0
   -3.1951   -0.3236   -0.1449 O   0  0  0  0  0  0  0  0  0  0  0  0
   -2.1694    1.4769   -0.9685 O   0  0  0  0  0  0  0  0  0  0  0  0
   -1.5985   -1.0580    1.8749 H   0  0  0  0  0  0  0  0  0  0  0  0
   -1.3279   -1.9903    0.5917 H   0  0  0  0  0  0  0  0  0  0  0  0
   -0.4798    0.7941    0.9405 H   0  0  0  0  0  0  0  0  0  0  0  0
    0.2835    0.6220   -1.4595 H   0  0  0  0  0  0  0  0  0  0  0  0
   -0.1518   -1.0709   -1.4948 H   0  0  0  0  0  0  0  0  0  0  0  0
    2.2724   -0.8091   -1.2280 H   0  0  0  0  0  0  0  0  0  0  0  0
    1.5891   -1.6084    0.1908 H   0  0  0  0  0  0  0  0  0  0  0  0
    2.5237    2.1614    0.8360 H   0  0  0  0  0  0  0  0  0  0  0  0
   -3.1001    1.5816   -1.2579 H   0  0  0  0  0  0  0  0  0  0  0  0
  1  2  1  0
  2  3  1  0
  3  4  1  0
  4  5  1  0
  5  6  2  0
  5  7  1  0
  2  8  1  0
  8  9  2  0
  8 10  1  0
  1 11  1  0
  1 12  1  0
  2 13  1  1
  3 14  1  0
  3 15  1  0
  4 16  1  0
  4 17  1  0
  7 18  1  0
 10 19  1  0
M  END
$$$$
