prostaglandin E2
     RDKit          3D

 57 57  0  0  0  0  0  0  0  0999 V2000
    7.6259    2.1266   -1.7501 C   0  0  0  0  0  0  0  0  0  0  0  0
    7.6599    0.8246   -0.9648 C   0  0  0  0  0  0  0  0  0  0  0  0
    6.2933    0.1468   -0.8456 C   0  0  0  0  0  0  0  0  0  0  0  0
    5.2849    0.9550   -0.0250 C   0  0  0  0  0  0  0  0  0  0  0  0
    3.9703    0.1834    0.1516 C   0  0  0  0  0  0  0  0  0  0  0  0
    2.9280    0.9937    0.9362 C   0  0  2  0  0  0  0  0  0  0  0  0
    3.4254    1.2763    2.2408 O   0  0  0  0  0  0  0  0  0  0  0  0
    1.5766    0.3551    1.1302 C   0  0  0  0  0  0  0  0  0  0  0  0
    1.1775   -0.8635    0.7274 C   0  0  0  0  0  0  0  0  0  0  0  0
   -0.1917   -1.4896    0.9008 C   0  0  1  0  0  0  0  0  0  0  0  0
   -0.1602   -2.7062    1.8476 C   0  0  2  0  0  0  0  0  0  0  0  0
    0.4806   -3.8223    1.2456 O   0  0  0  0  0  0  0  0  0  0  0  0
   -1.6280   -3.0330    2.0956 C   0  0  0  0  0  0  0  0  0  0  0  0
   -2.2623   -1.6719    2.0367 C   0  0  0  0  0  0  0  0  0  0  0  0
   -3.4009   -1.4458    2.4288 O   0  0  0  0  0  0  0  0  0  0  0  0
   -1.3165   -0.6176    1.4960 C   0  0  2  0  0  0  0  0  0  0  0  0
   -1.9852    0.3754    0.5410 C   0  0  0  0  0  0  0  0  0  0  0  0
   -2.4329   -0.1968   -0.7779 C   0  0  0  0  0  0  0  0  0  0  0  0
   -3.6870   -0.4791   -1.1657 C   0  0  0  0  0  0  0  0  0  0  0  0
   -4.9517   -0.3268   -0.3677 C   0  0  0  0  0  0  0  0  0  0  0  0
   -5.9009    0.6758   -1.0250 C   0  0  0  0  0  0  0  0  0  0  0  0
   -7.1899    0.8243   -0.2191 C   0  0  0  0  0  0  0  0  0  0  0  0
   -8.1347    1.8037   -0.8597 C   0  0  0  0  0  0  0  0  0  0  0  0
   -7.9770    2.4202   -1.8990 O   0  0  0  0  0  0  0  0  0  0  0  0
   -9.2634    1.9564   -0.1388 O   0  0  0  0  0  0  0  0  0  0  0  0
    7.0483    2.8951   -1.2283 H   0  0  0  0  0  0  0  0  0  0  0  0
    7.1875    1.9764   -2.7417 H   0  0  0  0  0  0  0  0  0  0  0  0
    8.6423    2.5107   -1.8839 H   0  0  0  0  0  0  0  0  0  0  0  0
    8.0724    1.0114    0.0335 H   0  0  0  0  0  0  0  0  0  0  0  0
    8.3472    0.1333   -1.4670 H   0  0  0  0  0  0  0  0  0  0  0  0
    6.4372   -0.8326   -0.3728 H   0  0  0  0  0  0  0  0  0  0  0  0
    5.8885   -0.0426   -1.8473 H   0  0  0  0  0  0  0  0  0  0  0  0
    5.7165    1.1866    0.9557 H   0  0  0  0  0  0  0  0  0  0  0  0
    5.0750    1.9083   -0.5229 H   0  0  0  0  0  0  0  0  0  0  0  0
    3.5718   -0.0763   -0.8368 H   0  0  0  0  0  0  0  0  0  0  0  0
    4.1897   -0.7531    0.6806 H   0  0  0  0  0  0  0  0  0  0  0  0
    2.7736    1.9554    0.4332 H   0  0  0  0  0  0  0  0  0  0  0  0
    3.5639    0.4235    2.6860 H   0  0  0  0  0  0  0  0  0  0  0  0
    0.8811    1.0057    1.6571 H   0  0  0  0  0  0  0  0  0  0  0  0
    1.8824   -1.4952    0.1881 H   0  0  0  0  0  0  0  0  0  0  0  0
   -0.4795   -1.8556   -0.0942 H   0  0  0  0  0  0  0  0  0  0  0  0
    0.3457   -2.4715    2.7930 H   0  0  0  0  0  0  0  0  0  0  0  0
    1.4344   -3.6340    1.2126 H   0  0  0  0  0  0  0  0  0  0  0  0
   -1.7728   -3.4928    3.0763 H   0  0  0  0  0  0  0  0  0  0  0  0
   -2.0501   -3.6738    1.3158 H   0  0  0  0  0  0  0  0  0  0  0  0
   -0.9546   -0.0767    2.3804 H   0  0  0  0  0  0  0  0  0  0  0  0
   -1.2778    1.1834    0.3162 H   0  0  0  0  0  0  0  0  0  0  0  0
   -2.8211    0.8638    1.0537 H   0  0  0  0  0  0  0  0  0  0  0  0
   -1.6392   -0.3661   -1.5059 H   0  0  0  0  0  0  0  0  0  0  0  0
   -3.8248   -0.8778   -2.1711 H   0  0  0  0  0  0  0  0  0  0  0  0
   -4.7505   -0.0125    0.6597 H   0  0  0  0  0  0  0  0  0  0  0  0
   -5.4368   -1.3085   -0.3045 H   0  0  0  0  0  0  0  0  0  0  0  0
   -5.4084    1.6529   -1.1145 H   0  0  0  0  0  0  0  0  0  0  0  0
   -6.1403    0.3519   -2.0464 H   0  0  0  0  0  0  0  0  0  0  0  0
   -7.6979   -0.1436   -0.1471 H   0  0  0  0  0  0  0  0  0  0  0  0
   -6.9577    1.1826    0.7899 H   0  0  0  0  0  0  0  0  0  0  0  0
   -9.7859    2.6072   -0.6526 H   0  0  0  0  0  0  0  0  0  0  0  0
  1  2  1  0
  2  3  1  0
  3  4  1  0
  4  5  1  0
  5  6  1  0
  6  7  1  0
  6  8  1  0
  8  9  2  0
  9 10  1  0
 10 11  1  0
 11 12  1  0
 11 13  1  0
 13 14  1  0
 14 15  2  0
 14 16  1  0
 16 17  1  0
 17 18  1  0
 18 19  2  0
 19 20  1  0
 20 21  1  0
 21 22  1  0
 22 23  1  0
 23 24  2  0
 23 25  1  0
 16 10  1  0
  1 26  1  0
  1 27  1  0
  1 28  1  0
  2 29  1  0
  2 30  1  0
  3 31  1  0
  3 32  1  0
  4 33  1  0
  4 34  1  0
  5 35  1  0
  5 36  1  0
  6 37  1  6
  7 38  1  0
  8 39  1  0
  9 40  1  0
 10 41  1  6
 11 42  1  1
 12 43  1  0
 13 44  1  0
 13 45  1  0
 16 46  1  1
 17 47  1  0
 17 48  1  0
 18 49  1  0
 19 50  1  0
 20 51  1  0
 20 52  1  0
 21 53  1  0
 21 54  1  0
 22 55  1  0
 22 56  1  0
 25 57  1  0
M  END
$$$$
