3-phospho-D-glyceric acid
     RDKit          3D

 18 17  0  0  0  0  0  0  0  0999 V2000
   -2.3507   -0.2943    1.7747 O   0  0  0  0  0  0  0  0  0  0  0  0
   -2.1573   -0.0184    0.5989 C   0  0  0  0  0  0  0  0  0  0  0  0
   -2.9396    0.8705   -0.0382 O   0  0  0  0  0  0  0  0  0  0  0  0
   -1.1223   -0.6982   -0.2909 C   0  0  2  0  0  0  0  0  0  0  0  0
   -0.2610   -1.5482    0.4954 O   0  0  0  0  0  0  0  0  0  0  0  0
   -0.2784    0.3192   -1.0588 C   0  0  0  0  0  0  0  0  0  0  0  0
    0.6108    0.9678   -0.1589 O   0  0  0  0  0  0  0  0  0  0  0  0
    2.1630    0.5804   -0.2250 P   0  0  0  0  0  0  0  0  0  0  0  0
    2.9132    1.1612   -1.3726 O   0  0  0  0  0  0  0  0  0  0  0  0
    2.7306    1.0129    1.2010 O   0  0  0  0  0  0  0  0  0  0  0  0
    2.1930   -1.0100   -0.1297 O   0  0  0  0  0  0  0  0  0  0  0  0
   -3.5457    1.2090    0.6557 H   0  0  0  0  0  0  0  0  0  0  0  0
   -1.6694   -1.3421   -0.9879 H   0  0  0  0  0  0  0  0  0  0  0  0
   -0.8250   -1.8817    1.2265 H   0  0  0  0  0  0  0  0  0  0  0  0
    0.2966   -0.1891   -1.8413 H   0  0  0  0  0  0  0  0  0  0  0  0
   -0.8926    1.0825   -1.5455 H   0  0  0  0  0  0  0  0  0  0  0  0
    3.6976    1.1221    1.1532 H   0  0  0  0  0  0  0  0  0  0  0  0
    1.4372   -1.3436    0.4063 H   0  0  0  0  0  0  0  0  0  0  0  0
  1  2  2  0
  2  3  1  0
  2  4  1  0
  4  5  1  0
  4  6  1  0
  6  7  1  0
  7  8  1  0
  8  9  2  0
  8 10  1  0
  8 11  1  0
  3 12  1  0
  4 13  1  6
  5 14  1  0
  6 15  1  0
  6 16  1  0
 10 17  1  0
 11 18  1  0
M  END
$$$$
