oxaloacetate(2−)
     RDKit          3D

 11 10  0  0  0  0  0  0  0  0999 V2000
   -2.1034   -1.0806    1.0679 O   0  0  0  0  0  0  0  0  0  0  0  0
   -1.8821   -0.2777    0.1120 C   0  0  0  0  0  0  0  0  0  0  0  0
   -2.7227    0.4447   -0.5069 O   0  0  0  0  0  0  0  0  0  0  0  0
   -0.4840   -0.2927   -0.4597 C   0  0  0  0  0  0  0  0  0  0  0  0
    0.4878    0.5215    0.3519 C   0  0  0  0  0  0  0  0  0  0  0  0
    0.2025    1.4564    1.1007 O   0  0  0  0  0  0  0  0  0  0  0  0
    1.9939    0.2303    0.1609 C   0  0  0  0  0  0  0  0  0  0  0  0
    2.8256    0.7518    0.9783 O   0  0  0  0  0  0  0  0  0  0  0  0
    2.3080   -0.5154   -0.8287 O   0  0  0  0  0  0  0  0  0  0  0  0
   -0.1425   -1.3335   -0.4921 H   0  0  0  0  0  0  0  0  0  0  0  0
   -0.4832    0.0951   -1.4842 H   0  0  0  0  0  0  0  0  0  0  0  0
  1  2  2  0
  2  3  1  0
  2  4  1  0
  4  5  1  0
  5  6  2  0
  5  7  1  0
  7  8  2  0
  7  9  1  0
  4 10  1  0
  4 11  1  0
M  CHG  2   3  -1   9  -1
M  END
$$$$
