keto-D-fructose 1,6-bisphosphate
     RDKit          3D

 34 33  0  0  0  0  0  0  0  0999 V2000
    2.2588    0.4863    1.2642 O   0  0  0  0  0  0  0  0  0  0  0  0
    1.9625    0.8113    0.1084 C   0  0  0  0  0  0  0  0  0  0  0  0
    2.9855    1.4298   -0.8498 C   0  0  0  0  0  0  0  0  0  0  0  0
    4.2632    1.6492   -0.2913 O   0  0  0  0  0  0  0  0  0  0  0  0
    5.0137    0.3772    0.3303 P   0  0  0  0  0  0  0  0  0  0  0  0
    4.6532   -0.9525   -0.2344 O   0  0  0  0  0  0  0  0  0  0  0  0
    6.5563    0.7631    0.2188 O   0  0  0  0  0  0  0  0  0  0  0  0
    4.7553    0.5358    1.8967 O   0  0  0  0  0  0  0  0  0  0  0  0
    0.5514    0.6225   -0.4557 C   0  0  1  0  0  0  0  0  0  0  0  0
    0.6280   -0.2518   -1.5760 O   0  0  0  0  0  0  0  0  0  0  0  0
   -0.4017    0.0528    0.6066 C   0  0  2  0  0  0  0  0  0  0  0  0
   -0.1278   -1.3510    0.7932 O   0  0  0  0  0  0  0  0  0  0  0  0
   -1.8991    0.2013    0.2652 C   0  0  2  0  0  0  0  0  0  0  0  0
   -2.6425   -0.3765    1.3681 O   0  0  0  0  0  0  0  0  0  0  0  0
   -2.3561   -0.4781   -1.0346 C   0  0  0  0  0  0  0  0  0  0  0  0
   -3.7183   -0.1679   -1.3161 O   0  0  0  0  0  0  0  0  0  0  0  0
   -4.8564   -0.9054   -0.4641 P   0  0  0  0  0  0  0  0  0  0  0  0
   -4.6323   -2.3359   -0.1159 O   0  0  0  0  0  0  0  0  0  0  0  0
   -5.0773    0.0608    0.7877 O   0  0  0  0  0  0  0  0  0  0  0  0
   -6.1855   -0.6347   -1.3053 O   0  0  0  0  0  0  0  0  0  0  0  0
    2.5970    2.3998   -1.1743 H   0  0  0  0  0  0  0  0  0  0  0  0
    3.0900    0.7855   -1.7280 H   0  0  0  0  0  0  0  0  0  0  0  0
    7.1204    0.0550    0.5749 H   0  0  0  0  0  0  0  0  0  0  0  0
    3.7973    0.4061    2.0785 H   0  0  0  0  0  0  0  0  0  0  0  0
    0.2009    1.6050   -0.7900 H   0  0  0  0  0  0  0  0  0  0  0  0
    0.6674   -1.1659   -1.2221 H   0  0  0  0  0  0  0  0  0  0  0  0
   -0.2418    0.5375    1.5782 H   0  0  0  0  0  0  0  0  0  0  0  0
    0.6867   -1.4080    1.3350 H   0  0  0  0  0  0  0  0  0  0  0  0
   -2.1719    1.2621    0.2345 H   0  0  0  0  0  0  0  0  0  0  0  0
   -2.2231   -1.2544    1.5207 H   0  0  0  0  0  0  0  0  0  0  0  0
   -2.2400   -1.5656   -0.9852 H   0  0  0  0  0  0  0  0  0  0  0  0
   -1.7856   -0.1100   -1.8895 H   0  0  0  0  0  0  0  0  0  0  0  0
   -4.2819   -0.0030    1.3664 H   0  0  0  0  0  0  0  0  0  0  0  0
   -6.9462   -1.0802   -0.8948 H   0  0  0  0  0  0  0  0  0  0  0  0
  1  2  2  0
  2  3  1  0
  3  4  1  0
  4  5  1  0
  5  6  2  0
  5  7  1  0
  5  8  1  0
  2  9  1  0
  9 10  1  0
  9 11  1  0
 11 12  1  0
 11 13  1  0
 13 14  1  0
 13 15  1  0
 15 16  1  0
 16 17  1  0
 17 18  2  0
 17 19  1  0
 17 20  1  0
  3 21  1  0
  3 22  1  0
  7 23  1  0
  8 24  1  0
  9 25  1  6
 10 26  1  0
 11 27  1  1
 12 28  1  0
 13 29  1  6
 14 30  1  0
 15 31  1  0
 15 32  1  0
 19 33  1  0
 20 34  1  0
M  END
$$$$
