(S)-malate(2−)
     RDKit          3D

 13 12  0  0  0  0  0  0  0  0999 V2000
   -2.1625    0.3381    0.9500 O   0  0  0  0  0  0  0  0  0  0  0  0
   -1.8459    0.4217   -0.2769 C   0  0  0  0  0  0  0  0  0  0  0  0
   -2.6131    0.4690   -1.2829 O   0  0  0  0  0  0  0  0  0  0  0  0
   -0.3516    0.5213   -0.5719 C   0  0  0  0  0  0  0  0  0  0  0  0
    0.4594   -0.4374    0.2999 C   0  0  2  0  0  0  0  0  0  0  0  0
    0.4140    0.0211    1.6807 O   0  0  0  0  0  0  0  0  0  0  0  0
    1.9424   -0.6011   -0.1759 C   0  0  0  0  0  0  0  0  0  0  0  0
    2.4486   -1.7551    0.0075 O   0  0  0  0  0  0  0  0  0  0  0  0
    2.4940    0.4035   -0.7217 O   0  0  0  0  0  0  0  0  0  0  0  0
   -0.0538    1.5597   -0.3822 H   0  0  0  0  0  0  0  0  0  0  0  0
   -0.1760    0.3078   -1.6327 H   0  0  0  0  0  0  0  0  0  0  0  0
   -0.0053   -1.4314    0.2883 H   0  0  0  0  0  0  0  0  0  0  0  0
   -0.5503    0.1829    1.8178 H   0  0  0  0  0  0  0  0  0  0  0  0
  1  2  2  0
  2  3  1  0
  2  4  1  0
  4  5  1  0
  5  6  1  0
  5  7  1  0
  7  8  2  0
  7  9  1  0
  4 10  1  0
  4 11  1  0
  5 12  1  1
  6 13  1  0
M  CHG  2   3  -1   9  -1
M  END
$$$$
