itaconate(2−)
     RDKit          3D

 13 12  0  0  0  0  0  0  0  0999 V2000
   -1.2304    0.8126    0.5323 C   0  0  0  0  0  0  0  0  0  0  0  0
   -0.3437    0.3247   -0.3548 C   0  0  0  0  0  0  0  0  0  0  0  0
    0.8031   -0.6012    0.0174 C   0  0  0  0  0  0  0  0  0  0  0  0
    0.9622   -1.0050    1.4883 C   0  0  0  0  0  0  0  0  0  0  0  0
    0.3694   -2.0693    1.8481 O   0  0  0  0  0  0  0  0  0  0  0  0
    1.7121   -0.2652    2.1982 O   0  0  0  0  0  0  0  0  0  0  0  0
   -0.4746    0.7144   -1.8616 C   0  0  0  0  0  0  0  0  0  0  0  0
   -1.4373    1.4884   -2.1585 O   0  0  0  0  0  0  0  0  0  0  0  0
    0.3908    0.2222   -2.6444 O   0  0  0  0  0  0  0  0  0  0  0  0
   -1.1724    0.5650    1.5860 H   0  0  0  0  0  0  0  0  0  0  0  0
   -2.0310    1.4707    0.2121 H   0  0  0  0  0  0  0  0  0  0  0  0
    1.7448   -0.1315   -0.2962 H   0  0  0  0  0  0  0  0  0  0  0  0
    0.7069   -1.5259   -0.5667 H   0  0  0  0  0  0  0  0  0  0  0  0
  1  2  2  0
  2  3  1  0
  3  4  1  0
  4  5  2  0
  4  6  1  0
  2  7  1  0
  7  8  2  0
  7  9  1  0
  1 10  1  0
  1 11  1  0
  3 12  1  0
  3 13  1  0
M  CHG  2   6  -1   9  -1
M  END
$$$$
