pyruvic acid
     RDKit          3D

 10  9  0  0  0  0  0  0  0  0999 V2000
   -1.4947    0.0076    0.1690 C   0  0  0  0  0  0  0  0  0  0  0  0
   -0.1586    0.4987   -0.3049 C   0  0  0  0  0  0  0  0  0  0  0  0
   -0.0229    1.4374   -1.0789 O   0  0  0  0  0  0  0  0  0  0  0  0
    1.0549   -0.2623    0.2505 C   0  0  0  0  0  0  0  0  0  0  0  0
    0.9672   -1.1992    1.0203 O   0  0  0  0  0  0  0  0  0  0  0  0
    2.2277    0.2000   -0.1910 O   0  0  0  0  0  0  0  0  0  0  0  0
   -2.2865    0.6125   -0.2819 H   0  0  0  0  0  0  0  0  0  0  0  0
   -1.5593    0.1011    1.2559 H   0  0  0  0  0  0  0  0  0  0  0  0
   -1.6350   -1.0333   -0.1331 H   0  0  0  0  0  0  0  0  0  0  0  0
    2.9072   -0.3626    0.2314 H   0  0  0  0  0  0  0  0  0  0  0  0
  1  2  1  0
  2  3  2  0
  2  4  1  0
  4  5  2  0
  4  6  1  0
  1  7  1  0
  1  8  1  0
  1  9  1  0
  6 10  1  0
M  END
$$$$
