keto-D-fructose 6-phosphate
     RDKit          3D

 29 28  0  0  0  0  0  0  0  0999 V2000
   -3.6905   -0.7408   -0.4886 O   0  0  0  0  0  0  0  0  0  0  0  0
   -2.9884   -0.2878    0.4225 C   0  0  0  0  0  0  0  0  0  0  0  0
   -3.2715    1.0682    1.0547 C   0  0  0  0  0  0  0  0  0  0  0  0
   -2.1233    1.7541    1.5116 O   0  0  0  0  0  0  0  0  0  0  0  0
   -1.8863   -1.1427    1.0331 C   0  0  1  0  0  0  0  0  0  0  0  0
   -2.4276   -2.4769    1.1969 O   0  0  0  0  0  0  0  0  0  0  0  0
   -0.6629   -1.2737    0.1110 C   0  0  2  0  0  0  0  0  0  0  0  0
    0.1490   -2.3621    0.5889 O   0  0  0  0  0  0  0  0  0  0  0  0
    0.2017   -0.0071    0.0227 C   0  0  2  0  0  0  0  0  0  0  0  0
   -0.5528    1.0964   -0.5082 O   0  0  0  0  0  0  0  0  0  0  0  0
    1.4376   -0.2332   -0.8584 C   0  0  0  0  0  0  0  0  0  0  0  0
    2.1420    1.0049   -0.9467 O   0  0  0  0  0  0  0  0  0  0  0  0
    3.5528    0.9597   -1.7005 P   0  0  0  0  0  0  0  0  0  0  0  0
    3.5745    0.3160   -3.0411 O   0  0  0  0  0  0  0  0  0  0  0  0
    4.0702    2.4649   -1.6438 O   0  0  0  0  0  0  0  0  0  0  0  0
    4.5490    0.2611   -0.6693 O   0  0  0  0  0  0  0  0  0  0  0  0
   -3.7827    1.7009    0.3226 H   0  0  0  0  0  0  0  0  0  0  0  0
   -3.9384    0.9098    1.9072 H   0  0  0  0  0  0  0  0  0  0  0  0
   -1.5612    1.8936    0.7189 H   0  0  0  0  0  0  0  0  0  0  0  0
   -1.6141   -0.7963    2.0338 H   0  0  0  0  0  0  0  0  0  0  0  0
   -2.9951   -2.6345    0.4123 H   0  0  0  0  0  0  0  0  0  0  0  0
   -1.0034   -1.5550   -0.8937 H   0  0  0  0  0  0  0  0  0  0  0  0
   -0.4835   -3.0271    0.9366 H   0  0  0  0  0  0  0  0  0  0  0  0
    0.5397    0.2923    1.0221 H   0  0  0  0  0  0  0  0  0  0  0  0
    0.1176    1.6998   -0.8959 H   0  0  0  0  0  0  0  0  0  0  0  0
    1.1381   -0.5232   -1.8712 H   0  0  0  0  0  0  0  0  0  0  0  0
    2.0948   -1.0003   -0.4373 H   0  0  0  0  0  0  0  0  0  0  0  0
    4.1221    2.7867   -0.7266 H   0  0  0  0  0  0  0  0  0  0  0  0
    5.2927   -0.1479   -1.1525 H   0  0  0  0  0  0  0  0  0  0  0  0
  1  2  2  0
  2  3  1  0
  3  4  1  0
  2  5  1  0
  5  6  1  0
  5  7  1  0
  7  8  1  0
  7  9  1  0
  9 10  1  0
  9 11  1  0
 11 12  1  0
 12 13  1  0
 13 14  2  0
 13 15  1  0
 13 16  1  0
  3 17  1  0
  3 18  1  0
  4 19  1  0
  5 20  1  1
  6 21  1  0
  7 22  1  6
  8 23  1  0
  9 24  1  1
 10 25  1  0
 11 26  1  0
 11 27  1  0
 15 28  1  0
 16 29  1  0
M  END
$$$$
