(S)-lactate
     RDKit          3D

 11 10  0  0  0  0  0  0  0  0999 V2000
    0.0324   -1.2707    0.2490 C   0  0  0  0  0  0  0  0  0  0  0  0
   -0.4782    0.1306   -0.0131 C   0  0  2  0  0  0  0  0  0  0  0  0
   -0.7849    0.2554   -1.4250 O   0  0  0  0  0  0  0  0  0  0  0  0
    0.5724    1.2123    0.3861 C   0  0  0  0  0  0  0  0  0  0  0  0
    1.0376    1.1469    1.5559 O   0  0  0  0  0  0  0  0  0  0  0  0
    0.8115    2.0417   -0.5483 O   0  0  0  0  0  0  0  0  0  0  0  0
    0.9665   -1.4530   -0.2941 H   0  0  0  0  0  0  0  0  0  0  0  0
    0.2181   -1.4398    1.3140 H   0  0  0  0  0  0  0  0  0  0  0  0
   -0.6894   -2.0155   -0.1025 H   0  0  0  0  0  0  0  0  0  0  0  0
   -1.4045    0.3173    0.5396 H   0  0  0  0  0  0  0  0  0  0  0  0
   -0.2814    1.0749   -1.6616 H   0  0  0  0  0  0  0  0  0  0  0  0
  1  2  1  0
  2  3  1  0
  2  4  1  0
  4  5  2  0
  4  6  1  0
  1  7  1  0
  1  8  1  0
  1  9  1  0
  2 10  1  1
  3 11  1  0
M  CHG  1   6  -1
M  END
$$$$
