2-oxoglutaric acid
     RDKit          3D

 16 15  0  0  0  0  0  0  0  0999 V2000
   -3.4307    0.0069    0.0447 O   0  0  0  0  0  0  0  0  0  0  0  0
   -2.2936    0.3964    0.2474 C   0  0  0  0  0  0  0  0  0  0  0  0
   -2.0696    1.6426    0.7031 O   0  0  0  0  0  0  0  0  0  0  0  0
   -1.0421   -0.4194    0.1070 C   0  0  0  0  0  0  0  0  0  0  0  0
    0.0654    0.3569   -0.5864 C   0  0  0  0  0  0  0  0  0  0  0  0
    1.2015   -0.5627   -0.9383 C   0  0  0  0  0  0  0  0  0  0  0  0
    1.1562   -1.3926   -1.8371 O   0  0  0  0  0  0  0  0  0  0  0  0
    2.4513   -0.4433   -0.0698 C   0  0  0  0  0  0  0  0  0  0  0  0
    3.5532   -0.1395   -0.4745 O   0  0  0  0  0  0  0  0  0  0  0  0
    2.1920   -0.7289    1.2120 O   0  0  0  0  0  0  0  0  0  0  0  0
   -2.9680    2.0302    0.7802 H   0  0  0  0  0  0  0  0  0  0  0  0
   -1.2934   -1.3152   -0.4733 H   0  0  0  0  0  0  0  0  0  0  0  0
   -0.7298   -0.7529    1.1025 H   0  0  0  0  0  0  0  0  0  0  0  0
   -0.2929    0.8177   -1.5146 H   0  0  0  0  0  0  0  0  0  0  0  0
    0.4345    1.1744    0.0431 H   0  0  0  0  0  0  0  0  0  0  0  0
    3.0660   -0.6706    1.6539 H   0  0  0  0  0  0  0  0  0  0  0  0
  1  2  2  0
  2  3  1  0
  2  4  1  0
  4  5  1  0
  5  6  1  0
  6  7  2  0
  6  8  1  0
  8  9  2  0
  8 10  1  0
  3 11  1  0
  4 12  1  0
  4 13  1  0
  5 14  1  0
  5 15  1  0
 10 16  1  0
M  END
$$$$
