cis-aconitate(3−)
     RDKit          3D

 15 14  0  0  0  0  0  0  0  0999 V2000
    3.2984   -1.3208    0.0218 O   0  0  0  0  0  0  0  0  0  0  0  0
    2.6150   -0.3735   -0.4891 C   0  0  0  0  0  0  0  0  0  0  0  0
    3.0475    0.5999   -1.1738 O   0  0  0  0  0  0  0  0  0  0  0  0
    1.0957   -0.6104   -0.4814 C   0  0  0  0  0  0  0  0  0  0  0  0
    0.0800    0.2185   -0.1413 C   0  0  0  0  0  0  0  0  0  0  0  0
   -1.3740   -0.1704   -0.3752 C   0  0  0  0  0  0  0  0  0  0  0  0
   -2.2114   -0.6857    0.8045 C   0  0  0  0  0  0  0  0  0  0  0  0
   -3.0661    0.1179    1.2964 O   0  0  0  0  0  0  0  0  0  0  0  0
   -2.1110   -1.9285    1.0673 O   0  0  0  0  0  0  0  0  0  0  0  0
    0.3289    1.6649    0.3695 C   0  0  0  0  0  0  0  0  0  0  0  0
   -0.1361    2.5912   -0.3710 O   0  0  0  0  0  0  0  0  0  0  0  0
    0.9115    1.7772    1.4909 O   0  0  0  0  0  0  0  0  0  0  0  0
    0.8396   -1.6158   -0.8059 H   0  0  0  0  0  0  0  0  0  0  0  0
   -1.4161   -0.9478   -1.1516 H   0  0  0  0  0  0  0  0  0  0  0  0
   -1.9020    0.6834   -0.8202 H   0  0  0  0  0  0  0  0  0  0  0  0
  1  2  2  0
  2  3  1  0
  2  4  1  0
  4  5  2  0
  5  6  1  0
  6  7  1  0
  7  8  2  0
  7  9  1  0
  5 10  1  0
 10 11  2  0
 10 12  1  0
  4 13  1  0
  6 14  1  0
  6 15  1  0
M  CHG  3   3  -1   9  -1  12  -1
M  END
$$$$
