fumaric acid
     RDKit          3D

 12 11  0  0  0  0  0  0  0  0999 V2000
    2.3279   -0.4340    1.0714 O   0  0  0  0  0  0  0  0  0  0  0  0
    1.8458    0.0355    0.0594 C   0  0  0  0  0  0  0  0  0  0  0  0
    2.5985    0.5375   -0.9307 O   0  0  0  0  0  0  0  0  0  0  0  0
    0.4258    0.1483   -0.2778 C   0  0  0  0  0  0  0  0  0  0  0  0
   -0.4871   -0.3019    0.5930 C   0  0  0  0  0  0  0  0  0  0  0  0
   -1.9293   -0.2330    0.3455 C   0  0  0  0  0  0  0  0  0  0  0  0
   -2.7806   -0.6336    1.1177 O   0  0  0  0  0  0  0  0  0  0  0  0
   -2.2513    0.3218   -0.8324 O   0  0  0  0  0  0  0  0  0  0  0  0
    3.5186    0.4178   -0.6151 H   0  0  0  0  0  0  0  0  0  0  0  0
    0.1696    0.5967   -1.2295 H   0  0  0  0  0  0  0  0  0  0  0  0
   -0.2069   -0.7481    1.5420 H   0  0  0  0  0  0  0  0  0  0  0  0
   -3.2310    0.2932   -0.8437 H   0  0  0  0  0  0  0  0  0  0  0  0
  1  2  2  0
  2  3  1  0
  2  4  1  0
  4  5  2  0
  5  6  1  0
  6  7  2  0
  6  8  1  0
  3  9  1  0
  4 10  1  0
  5 11  1  0
  8 12  1  0
M  END
$$$$
