phosphoenolpyruvate
     RDKit          3D

 14 13  0  0  0  0  0  0  0  0999 V2000
   -2.2451    0.5335    1.0387 C   0  0  0  0  0  0  0  0  0  0  0  0
   -1.1065    0.0416    0.5339 C   0  0  0  0  0  0  0  0  0  0  0  0
    0.0092    0.8715    0.4350 O   0  0  0  0  0  0  0  0  0  0  0  0
    1.3544    0.5494   -0.3887 P   0  0  0  0  0  0  0  0  0  0  0  0
    1.2821    0.4089   -1.8742 O   0  0  0  0  0  0  0  0  0  0  0  0
    2.2958    1.7986    0.0010 O   0  0  0  0  0  0  0  0  0  0  0  0
    2.1266   -0.6051    0.4058 O   0  0  0  0  0  0  0  0  0  0  0  0
   -0.9980   -1.4522    0.0761 C   0  0  0  0  0  0  0  0  0  0  0  0
    0.1858   -1.9156    0.0894 O   0  0  0  0  0  0  0  0  0  0  0  0
   -2.0791   -2.0277   -0.2203 O   0  0  0  0  0  0  0  0  0  0  0  0
   -2.3144    1.5644    1.3602 H   0  0  0  0  0  0  0  0  0  0  0  0
   -3.1248   -0.0975    1.1245 H   0  0  0  0  0  0  0  0  0  0  0  0
    3.1041    1.7274   -0.5325 H   0  0  0  0  0  0  0  0  0  0  0  0
    1.5100   -1.3974    0.3327 H   0  0  0  0  0  0  0  0  0  0  0  0
  1  2  2  0
  2  3  1  0
  3  4  1  0
  4  5  2  0
  4  6  1  0
  4  7  1  0
  2  8  1  0
  8  9  2  0
  8 10  1  0
  1 11  1  0
  1 12  1  0
  6 13  1  0
  7 14  1  0
M  CHG  1  10  -1
M  END
$$$$
