2-phospho-D-glyceric acid
     RDKit          3D

 18 17  0  0  0  0  0  0  0  0999 V2000
   -2.1997    1.3397    1.0363 O   0  0  0  0  0  0  0  0  0  0  0  0
   -1.1108    1.0977    0.5385 C   0  0  0  0  0  0  0  0  0  0  0  0
   -0.1744    2.0752    0.4797 O   0  0  0  0  0  0  0  0  0  0  0  0
   -0.6613   -0.2433   -0.0353 C   0  0  1  0  0  0  0  0  0  0  0  0
   -1.6582   -0.7006   -1.0971 C   0  0  0  0  0  0  0  0  0  0  0  0
   -1.5279    0.0755   -2.2912 O   0  0  0  0  0  0  0  0  0  0  0  0
    0.6216   -0.2035   -0.6416 O   0  0  0  0  0  0  0  0  0  0  0  0
    1.9026   -0.4343    0.2830 P   0  0  0  0  0  0  0  0  0  0  0  0
    3.2266   -0.1854   -0.3460 O   0  0  0  0  0  0  0  0  0  0  0  0
    1.6361    0.4113    1.6068 O   0  0  0  0  0  0  0  0  0  0  0  0
    1.7239   -1.9318    0.8062 O   0  0  0  0  0  0  0  0  0  0  0  0
   -0.6677    2.8623    0.8018 H   0  0  0  0  0  0  0  0  0  0  0  0
   -0.6625   -0.9583    0.7953 H   0  0  0  0  0  0  0  0  0  0  0  0
   -2.6941   -0.6298   -0.7518 H   0  0  0  0  0  0  0  0  0  0  0  0
   -1.4589   -1.7411   -1.3748 H   0  0  0  0  0  0  0  0  0  0  0  0
   -0.5775    0.0697   -2.5175 H   0  0  0  0  0  0  0  0  0  0  0  0
    1.7128    1.3678    1.4174 H   0  0  0  0  0  0  0  0  0  0  0  0
    2.5695   -2.2710    1.1534 H   0  0  0  0  0  0  0  0  0  0  0  0
  1  2  2  0
  2  3  1  0
  2  4  1  0
  4  5  1  0
  5  6  1  0
  4  7  1  0
  7  8  1  0
  8  9  2  0
  8 10  1  0
  8 11  1  0
  3 12  1  0
  4 13  1  1
  5 14  1  0
  5 15  1  0
  6 16  1  0
 10 17  1  0
 11 18  1  0
M  END
$$$$
