succinic acid
     RDKit          3D

 14 13  0  0  0  0  0  0  0  0999 V2000
   -2.2647   -1.2108   -0.2331 O   0  0  0  0  0  0  0  0  0  0  0  0
   -1.5999   -0.2113   -0.0215 C   0  0  0  0  0  0  0  0  0  0  0  0
   -1.6631    0.8531   -0.8408 O   0  0  0  0  0  0  0  0  0  0  0  0
   -0.6182   -0.0236    1.0971 C   0  0  0  0  0  0  0  0  0  0  0  0
    0.6947   -0.7016    0.7576 C   0  0  0  0  0  0  0  0  0  0  0  0
    1.4368    0.0721   -0.2923 C   0  0  0  0  0  0  0  0  0  0  0  0
    1.5375   -0.2263   -1.4698 O   0  0  0  0  0  0  0  0  0  0  0  0
    2.0071    1.1910    0.1904 O   0  0  0  0  0  0  0  0  0  0  0  0
   -2.2875    0.5797   -1.5460 H   0  0  0  0  0  0  0  0  0  0  0  0
   -1.0579   -0.4670    1.9976 H   0  0  0  0  0  0  0  0  0  0  0  0
   -0.4941    1.0457    1.3022 H   0  0  0  0  0  0  0  0  0  0  0  0
    1.3342   -0.7775    1.6442 H   0  0  0  0  0  0  0  0  0  0  0  0
    0.5409   -1.7222    0.3887 H   0  0  0  0  0  0  0  0  0  0  0  0
    2.4342    1.5987   -0.5926 H   0  0  0  0  0  0  0  0  0  0  0  0
  1  2  2  0
  2  3  1  0
  2  4  1  0
  4  5  1  0
  5  6  1  0
  6  7  2  0
  6  8  1  0
  3  9  1  0
  4 10  1  0
  4 11  1  0
  5 12  1  0
  5 13  1  0
  8 14  1  0
M  END
$$$$
