L-glutamine
     RDKit          3D

 20 19  0  0  0  0  0  0  0  0999 V2000
    3.6618    0.3068    0.1194 N   0  0  0  0  0  0  0  0  0  0  0  0
    2.4280    0.3475    0.7017 C   0  0  0  0  0  0  0  0  0  0  0  0
    2.2942    0.6885    1.8697 O   0  0  0  0  0  0  0  0  0  0  0  0
    1.2987   -0.0627   -0.2169 C   0  0  0  0  0  0  0  0  0  0  0  0
   -0.0551   -0.0335    0.4938 C   0  0  0  0  0  0  0  0  0  0  0  0
   -1.2052   -0.4947   -0.4058 C   0  0  2  0  0  0  0  0  0  0  0  0
   -1.3419    0.4079   -1.5763 N   0  0  0  0  0  0  0  0  0  0  0  0
   -2.5153   -0.5653    0.3957 C   0  0  0  0  0  0  0  0  0  0  0  0
   -2.6653   -1.0440    1.5080 O   0  0  0  0  0  0  0  0  0  0  0  0
   -3.5818   -0.0622   -0.2686 O   0  0  0  0  0  0  0  0  0  0  0  0
    4.4402    0.6443    0.6708 H   0  0  0  0  0  0  0  0  0  0  0  0
    3.7812    0.2245   -0.8805 H   0  0  0  0  0  0  0  0  0  0  0  0
    1.5056   -1.0747   -0.5841 H   0  0  0  0  0  0  0  0  0  0  0  0
    1.3005    0.6219   -1.0725 H   0  0  0  0  0  0  0  0  0  0  0  0
   -0.2552    0.9779    0.8734 H   0  0  0  0  0  0  0  0  0  0  0  0
   -0.0070   -0.6781    1.3815 H   0  0  0  0  0  0  0  0  0  0  0  0
   -1.0129   -1.5057   -0.7828 H   0  0  0  0  0  0  0  0  0  0  0  0
   -2.2096    0.1450   -2.0540 H   0  0  0  0  0  0  0  0  0  0  0  0
   -1.5370    1.3492   -1.2293 H   0  0  0  0  0  0  0  0  0  0  0  0
   -4.3240   -0.1927    0.3594 H   0  0  0  0  0  0  0  0  0  0  0  0
  1  2  1  0
  2  3  2  0
  2  4  1  0
  4  5  1  0
  5  6  1  0
  6  7  1  0
  6  8  1  0
  8  9  2  0
  8 10  1  0
  1 11  1  0
  1 12  1  0
  4 13  1  0
  4 14  1  0
  5 15  1  0
  5 16  1  0
  6 17  1  6
  7 18  1  0
  7 19  1  0
 10 20  1  0
M  END
$$$$
