citrate(3−)
     RDKit          3D

 18 17  0  0  0  0  0  0  0  0999 V2000
   -1.5019    1.9922    0.8364 O   0  0  0  0  0  0  0  0  0  0  0  0
   -1.5959    1.6772   -0.3816 C   0  0  0  0  0  0  0  0  0  0  0  0
   -2.2170    2.3254   -1.2918 O   0  0  0  0  0  0  0  0  0  0  0  0
   -0.8366    0.4453   -0.8906 C   0  0  0  0  0  0  0  0  0  0  0  0
   -0.1927   -0.6114    0.0293 C   0  0  0  0  0  0  0  0  0  0  0  0
    0.3021   -1.6754   -0.8736 O   0  0  0  0  0  0  0  0  0  0  0  0
    1.0445   -0.0911    0.8054 C   0  0  0  0  0  0  0  0  0  0  0  0
    2.3309    0.2786    0.0539 C   0  0  0  0  0  0  0  0  0  0  0  0
    3.1811    0.9708    0.6964 O   0  0  0  0  0  0  0  0  0  0  0  0
    2.4678   -0.2059   -1.1146 O   0  0  0  0  0  0  0  0  0  0  0  0
   -1.2904   -1.2903    0.9816 C   0  0  0  0  0  0  0  0  0  0  0  0
   -0.9068   -1.6576    2.1424 O   0  0  0  0  0  0  0  0  0  0  0  0
   -2.4361   -1.5198    0.4675 O   0  0  0  0  0  0  0  0  0  0  0  0
   -1.5338   -0.0776   -1.5628 H   0  0  0  0  0  0  0  0  0  0  0  0
   -0.0618    0.8336   -1.5667 H   0  0  0  0  0  0  0  0  0  0  0  0
    1.1181   -1.2756   -1.2600 H   0  0  0  0  0  0  0  0  0  0  0  0
    1.3754   -0.8784    1.4972 H   0  0  0  0  0  0  0  0  0  0  0  0
    0.7531    0.7600    1.4317 H   0  0  0  0  0  0  0  0  0  0  0  0
  1  2  2  0
  2  3  1  0
  2  4  1  0
  4  5  1  0
  5  6  1  0
  5  7  1  0
  7  8  1  0
  8  9  2  0
  8 10  1  0
  5 11  1  0
 11 12  2  0
 11 13  1  0
  4 14  1  0
  4 15  1  0
  6 16  1  0
  7 17  1  0
  7 18  1  0
M  CHG  3   3  -1  10  -1  13  -1
M  END
$$$$
