L-serine
     RDKit          3D

 14 13  0  0  0  0  0  0  0  0999 V2000
   -0.0616    1.0633   -1.0338 N   0  0  0  0  0  0  0  0  0  0  0  0
    0.0177    0.4900    0.3321 C   0  0  1  0  0  0  0  0  0  0  0  0
   -1.2353   -0.3216    0.6979 C   0  0  0  0  0  0  0  0  0  0  0  0
   -1.4968   -1.3628   -0.2413 O   0  0  0  0  0  0  0  0  0  0  0  0
    1.2779   -0.3630    0.5050 C   0  0  0  0  0  0  0  0  0  0  0  0
    1.4573   -1.2517    1.3241 O   0  0  0  0  0  0  0  0  0  0  0  0
    2.3038    0.0321   -0.2887 O   0  0  0  0  0  0  0  0  0  0  0  0
    0.8632    1.4206   -1.2793 H   0  0  0  0  0  0  0  0  0  0  0  0
   -0.7120    1.8432   -1.0449 H   0  0  0  0  0  0  0  0  0  0  0  0
    0.1228    1.3207    1.0404 H   0  0  0  0  0  0  0  0  0  0  0  0
   -2.1111    0.3365    0.7183 H   0  0  0  0  0  0  0  0  0  0  0  0
   -1.1293   -0.7779    1.6880 H   0  0  0  0  0  0  0  0  0  0  0  0
   -2.3069   -1.8151    0.0466 H   0  0  0  0  0  0  0  0  0  0  0  0
    3.0104   -0.6142   -0.0826 H   0  0  0  0  0  0  0  0  0  0  0  0
  1  2  1  0
  2  3  1  0
  3  4  1  0
  2  5  1  0
  5  6  2  0
  5  7  1  0
  1  8  1  0
  1  9  1  0
  2 10  1  1
  3 11  1  0
  3 12  1  0
  4 13  1  0
  7 14  1  0
M  END
$$$$
