3-phospho-D-glyceroyl dihydrogen phosphate
     RDKit          3D

 23 22  0  0  0  0  0  0  0  0999 V2000
   -1.5450    0.2078    1.5091 O   0  0  0  0  0  0  0  0  0  0  0  0
   -1.4270   -0.0135    0.3097 C   0  0  0  0  0  0  0  0  0  0  0  0
   -2.4045   -0.5467   -0.4451 O   0  0  0  0  0  0  0  0  0  0  0  0
   -3.7163   -1.1352    0.2348 P   0  0  0  0  0  0  0  0  0  0  0  0
   -3.5679   -2.3265    1.1158 O   0  0  0  0  0  0  0  0  0  0  0  0
   -4.3837    0.1113    0.9854 O   0  0  0  0  0  0  0  0  0  0  0  0
   -4.7505   -1.3113   -0.9705 O   0  0  0  0  0  0  0  0  0  0  0  0
   -0.1961    0.3392   -0.5210 C   0  0  2  0  0  0  0  0  0  0  0  0
   -0.0420   -0.4776   -1.6834 O   0  0  0  0  0  0  0  0  0  0  0  0
    1.0552    0.2044    0.3461 C   0  0  0  0  0  0  0  0  0  0  0  0
    2.1943    0.4972   -0.4625 O   0  0  0  0  0  0  0  0  0  0  0  0
    3.5657    0.7578    0.3169 P   0  0  0  0  0  0  0  0  0  0  0  0
    3.5808    1.8850    1.2872 O   0  0  0  0  0  0  0  0  0  0  0  0
    4.6338    0.9771   -0.8485 O   0  0  0  0  0  0  0  0  0  0  0  0
    4.0253   -0.6592    0.8756 O   0  0  0  0  0  0  0  0  0  0  0  0
   -3.9800    0.2047    1.8736 H   0  0  0  0  0  0  0  0  0  0  0  0
   -5.0644   -0.4497   -1.2948 H   0  0  0  0  0  0  0  0  0  0  0  0
   -0.3070    1.3713   -0.8709 H   0  0  0  0  0  0  0  0  0  0  0  0
    0.8820   -0.3592   -1.9770 H   0  0  0  0  0  0  0  0  0  0  0  0
    1.1616   -0.8212    0.7166 H   0  0  0  0  0  0  0  0  0  0  0  0
    1.0159    0.8876    1.2013 H   0  0  0  0  0  0  0  0  0  0  0  0
    4.9513    1.9007   -0.8302 H   0  0  0  0  0  0  0  0  0  0  0  0
    4.3185   -1.2440    0.1541 H   0  0  0  0  0  0  0  0  0  0  0  0
  1  2  2  0
  2  3  1  0
  3  4  1  0
  4  5  2  0
  4  6  1  0
  4  7  1  0
  2  8  1  0
  8  9  1  0
  8 10  1  0
 10 11  1  0
 11 12  1  0
 12 13  2  0
 12 14  1  0
 12 15  1  0
  6 16  1  0
  7 17  1  0
  8 18  1  6
  9 19  1  0
 10 20  1  0
 10 21  1  0
 14 22  1  0
 15 23  1  0
M  END
$$$$
